-------------------------------------------------------
          Amber 24 PMEMD                              2024
          -------------------------------------------------------

  [-O]verwriting output

File Assignments:

 Here is the input file:

heat up
 &cntrl
  imin   = 0,
  irest  = 0,
  ntx    = 1,
  ntb    = 1,
  cut    = 9.0,
  ntr    = 1,
  ntc    = 2,
  ntf    = 2,
  tempi  = 0.0,
  temp0  = 300.0,
  ntt    = 3,
  gamma_ln = 1.0, ig = -1,
  nstlim = 100000, dt = 0.001
  ntpr = 100, ntwx = 20000, ntwr = 100
 /
Keep Enzyme fixed with weak restraints
10.0
RES 1 381
END
END

Note: ig = -1. Setting random seed to   604830 based on wallclock time in
      microseconds.

--------------------------------------------------------------------------------
   1.  RESOURCE   USE:
--------------------------------------------------------------------------------

 getting box info from netcdf restart file
 NATOM  =   43106 NTYPES =      22 NBONH =   39961 MBONA  =    3241
 NTHETH =    6771 MTHETA =    4404 NPHIH =   13943 MPHIA  =   13519
 NHPARM =       0 NPARM  =       0 NNB   =   83087 NRES   =   12710
 NBONA  =    3241 NTHETA =    4404 NPHIA =   13519 NUMBND =      87
 NUMANG =     199 NPTRA  =     222 NATYP =      45 NPHB   =       0
 IFBOX  =       2 NMXRS  =      31 IFCAP =       0 NEXTRA =       0
 NCOPY  =       0

     BOX TYPE: TRUNCATED OCTAHEDRON

--------------------------------------------------------------------------------
   2.  CONTROL  DATA  FOR  THE  RUN
--------------------------------------------------------------------------------

default_name

General flags:
     imin    =       0, nmropt  =       0

Nature and format of input:
     ntx     =       1, irest   =       0, ntrx    =       1

Nature and format of output:
     ntxo    =       2, ntpr    =     100, ntrx    =       1, ntwr    =     100
     iwrap   =       0, ntwx    =   20000, ntwv    =       0, ntwe    =       0
     ioutfm  =       1, ntwprt  =       0, idecomp =       0, rbornstat=      0

Potential function:
     ntf     =       2, ntb     =       1, igb     =       0, nsnb    =      25
     ipol    =       0, gbsa    =       0, iesp    =       0
     dielc   =   1.00000, cut     =   9.00000, intdiel =   1.00000

Frozen or restrained atoms:
     ibelly  =       0, ntr     =       1
     restraint_wt =   0.00000

Molecular dynamics:
     nstlim  =    100000, nscm    =         0, nrespa  =         1
     t       =   0.00000, dt      =   0.00100, vlimit  =  -1.00000

Langevin dynamics temperature regulation:
     ig      =  604830
     temp0   = 300.00000, tempi   =   0.00000, gamma_ln=   1.00000

SHAKE:
     ntc     =       2, jfastw  =       0
     tol     =   0.00001

Ewald parameters:
     verbose =       0, ew_type =       0, nbflag  =       1, use_pme =       1
     vdwmeth =       1, eedmeth =       1, netfrc  =       1
     Box X =   86.510   Box Y =   86.510   Box Z =   86.510
     Alpha =  109.471   Beta  =  109.471   Gamma =  109.471
     NFFT1 =   96       NFFT2 =   96       NFFT3 =   96
     Cutoff=    9.000   Tol   =0.100E-04
     Ewald Coefficient =  0.30768
     Interpolation order =    4

    LOADING THE CONSTRAINED ATOMS AS GROUPS

   5.  REFERENCE ATOM COORDINATES

  default_name
    ----- READING GROUP     1; TITLE:
 Keep Enzyme fixed with weak restraints

     GROUP    1 HAS HARMONIC CONSTRAINTS    10.00000
 GRP    1 RES    1 TO   381
      Number of atoms in this group  =  6123
    ----- END OF GROUP READ -----

--------------------------------------------------------------------------------
   3.  ATOMIC COORDINATES AND VELOCITIES
--------------------------------------------------------------------------------

default_name
 begin time read from input coords =     0.000 ps

 Number of triangulated 3-point waters found:    12327

     Sum of charges from parm topology file =   0.30789986
     Assuming uniform neutralizing plasma

--------------------------------------------------------------------------------
   4.  RESULTS
 NSTEP =        0   TIME(PS) =       0.000  TEMP(K) =     0.00  PRESS =     0.0
 Etot   =   -135908.2159  EKtot   =         0.0000  EPtot      =   -135908.2159
 BOND   =      4439.6124  ANGLE   =      2621.4124  DIHED      =      4303.2388
 1-4 NB =      1315.8632  1-4 EEL =     14050.5996  VDWAALS    =     17983.7911
 EELEC  =   -180622.7334  EHBOND  =         0.0000  RESTRAINT  =         0.0000
 ------------------------------------------------------------------------------

      A V E R A G E S   O V E R    1000 S T E P S

 NSTEP =   100000   TIME(PS) =     100.000  TEMP(K) =   298.09  PRESS =     0.0
 Etot   =    -96264.2665  EKtot   =     26465.9524  EPtot      =   -122730.2189
 BOND   =      1853.2160  ANGLE   =      3631.4302  DIHED      =      4727.9444
 1-4 NB =      1383.9402  1-4 EEL =     13987.3737  VDWAALS    =     13279.4064
 EELEC  =   -164474.2561  EHBOND  =         0.0000  RESTRAINT  =      2880.7264
 EAMBER (non-restraint)  =   -125610.9452
 ------------------------------------------------------------------------------

      R M S  F L U C T U A T I O N S

 NSTEP =   100000   TIME(PS) =     100.000  TEMP(K) =    14.59  PRESS =     0.0
 Etot   =      2902.3844  EKtot   =      1294.9424  EPtot      =      1782.8700
 BOND   =        50.0859  ANGLE   =        86.3279  DIHED      =        23.2160
 1-4 NB =        12.1906  1-4 EEL =        31.8592  VDWAALS    =       603.3088
 EELEC  =      2234.0992  EHBOND  =         0.0000  RESTRAINT  =        49.4774
 EAMBER (non-restraint)  =      1733.3926
 ------------------------------------------------------------------------------
