-------------------------------------------------------
          Amber 24 PMEMD                              2024
          -------------------------------------------------------

  [-O]verwriting output

File Assignments:

 Here is the input file:

heat up
 &cntrl
  imin   = 0,
  irest  = 0,
  ntx    = 1,
  ntb    = 1,
  cut    = 9.0,
  ntr    = 1,
  ntc    = 2,
  ntf    = 2,
  tempi  = 0.0,
  temp0  = 300.0,
  ntt    = 3,
  gamma_ln = 1.0, ig = -1,
  nstlim = 100000, dt = 0.001
  ntpr = 100, ntwx = 20000, ntwr = 100
 /
Keep Enzyme fixed with weak restraints
10.0
RES 1 381
END
END

Note: ig = -1. Setting random seed to   247297 based on wallclock time in
      microseconds.

--------------------------------------------------------------------------------
   1.  RESOURCE   USE:
--------------------------------------------------------------------------------

 getting box info from netcdf restart file
 NATOM  =   43077 NTYPES =      19 NBONH =   39968 MBONA  =    3200
 NTHETH =    6718 MTHETA =    4344 NPHIH =   13839 MPHIA  =   13411
 NHPARM =       0 NPARM  =       0 NNB   =   82801 NRES   =   12720
 NBONA  =    3200 NTHETA =    4344 NPHIA =   13411 NUMBND =      67
 NUMANG =     152 NPTRA  =     192 NATYP =      37 NPHB   =       0
 IFBOX  =       2 NMXRS  =      24 IFCAP =       0 NEXTRA =       0
 NCOPY  =       0

     BOX TYPE: TRUNCATED OCTAHEDRON

--------------------------------------------------------------------------------
   2.  CONTROL  DATA  FOR  THE  RUN
--------------------------------------------------------------------------------

default_name

General flags:
     imin    =       0, nmropt  =       0

Nature and format of input:
     ntx     =       1, irest   =       0, ntrx    =       1

Nature and format of output:
     ntxo    =       2, ntpr    =     100, ntrx    =       1, ntwr    =     100
     iwrap   =       0, ntwx    =   20000, ntwv    =       0, ntwe    =       0
     ioutfm  =       1, ntwprt  =       0, idecomp =       0, rbornstat=      0

Potential function:
     ntf     =       2, ntb     =       1, igb     =       0, nsnb    =      25
     ipol    =       0, gbsa    =       0, iesp    =       0
     dielc   =   1.00000, cut     =   9.00000, intdiel =   1.00000

Frozen or restrained atoms:
     ibelly  =       0, ntr     =       1
     restraint_wt =   0.00000

Molecular dynamics:
     nstlim  =    100000, nscm    =         0, nrespa  =         1
     t       =   0.00000, dt      =   0.00100, vlimit  =  -1.00000

Langevin dynamics temperature regulation:
     ig      =  247297
     temp0   = 300.00000, tempi   =   0.00000, gamma_ln=   1.00000

SHAKE:
     ntc     =       2, jfastw  =       0
     tol     =   0.00001

Ewald parameters:
     verbose =       0, ew_type =       0, nbflag  =       1, use_pme =       1
     vdwmeth =       1, eedmeth =       1, netfrc  =       1
     Box X =   86.514   Box Y =   86.514   Box Z =   86.514
     Alpha =  109.471   Beta  =  109.471   Gamma =  109.471
     NFFT1 =   96       NFFT2 =   96       NFFT3 =   96
     Cutoff=    9.000   Tol   =0.100E-04
     Ewald Coefficient =  0.30768
     Interpolation order =    4

    LOADING THE CONSTRAINED ATOMS AS GROUPS

   5.  REFERENCE ATOM COORDINATES

  default_name
    ----- READING GROUP     1; TITLE:
 Keep Enzyme fixed with weak restraints

     GROUP    1 HAS HARMONIC CONSTRAINTS    10.00000
 GRP    1 RES    1 TO   381
      Number of atoms in this group  =  6064
    ----- END OF GROUP READ -----

--------------------------------------------------------------------------------
   3.  ATOMIC COORDINATES AND VELOCITIES
--------------------------------------------------------------------------------

default_name
 begin time read from input coords =     0.000 ps

 Number of triangulated 3-point waters found:    12337

     Sum of charges from parm topology file =  -0.00000016
     Forcing neutrality...

--------------------------------------------------------------------------------
   4.  RESULTS
 NSTEP =        0   TIME(PS) =       0.000  TEMP(K) =     0.00  PRESS =     0.0
 Etot   =   -136179.7327  EKtot   =         0.0000  EPtot      =   -136179.7327
 BOND   =      4592.7559  ANGLE   =      2602.7018  DIHED      =      4258.4795
 1-4 NB =      1296.9046  1-4 EEL =     14469.4199  VDWAALS    =     18829.8843
 EELEC  =   -182229.8785  EHBOND  =         0.0000  RESTRAINT  =         0.0000
 ------------------------------------------------------------------------------

      A V E R A G E S   O V E R    1000 S T E P S

 NSTEP =   100000   TIME(PS) =     100.000  TEMP(K) =   297.84  PRESS =     0.0
 Etot   =    -96175.5070  EKtot   =     26415.7406  EPtot      =   -122591.2476
 BOND   =      1865.3556  ANGLE   =      3635.1952  DIHED      =      4680.8614
 1-4 NB =      1378.9338  1-4 EEL =     14416.5378  VDWAALS    =     13404.5813
 EELEC  =   -164784.5402  EHBOND  =         0.0000  RESTRAINT  =      2811.8274
 EAMBER (non-restraint)  =   -125403.0750
 ------------------------------------------------------------------------------

      R M S  F L U C T U A T I O N S

 NSTEP =   100000   TIME(PS) =     100.000  TEMP(K) =    14.88  PRESS =     0.0
 Etot   =      2916.0692  EKtot   =      1320.1478  EPtot      =      1749.6163
 BOND   =        48.6291  ANGLE   =        87.6681  DIHED      =        22.6903
 1-4 NB =        13.9933  1-4 EEL =        31.1851  VDWAALS    =       589.6740
 EELEC  =      2178.5471  EHBOND  =         0.0000  RESTRAINT  =        41.0638
 EAMBER (non-restraint)  =      1708.5525
 ------------------------------------------------------------------------------
